
#======================================================================
# CRYSTAL DATA
#----------------------------------------------------------------------
data_VESTA_phase_1

_chemical_name_common                  'H4 O2'
_cell_length_a                         10.044278
_cell_length_b                         10.044278
_cell_length_c                         9.719834
_cell_angle_alpha                      90.000000
_cell_angle_beta                       90.000000
_cell_angle_gamma                      90.000000
_cell_volume                           980.610014
_space_group_name_H-M_alt              'P 42 n m'
_space_group_IT_number                 102

loop_
_space_group_symop_operation_xyz
   'x, y, z'
   '-x, -y, z'
   '-y+1/6, x+1/6, z+1/6'
   'y+1/6, -x+1/6, z+1/6'
   'x+1/6, -y+1/6, z+1/6'
   '-x+1/6, y+1/6, z+1/6'
   '-y, -x, z'
   'y, x, z'
   'x, y, z+1/3'
   '-x, -y, z+1/3'
   '-y+1/6, x+1/6, z+1/2'
   'y+1/6, -x+1/6, z+1/2'
   'x+1/6, -y+1/6, z+1/2'
   '-x+1/6, y+1/6, z+1/2'
   '-y, -x, z+1/3'
   'y, x, z+1/3'
   'x, y, z+2/3'
   '-x, -y, z+2/3'
   '-y+1/6, x+1/6, z+5/6'
   'y+1/6, -x+1/6, z+5/6'
   'x+1/6, -y+1/6, z+5/6'
   '-x+1/6, y+1/6, z+5/6'
   '-y, -x, z+2/3'
   'y, x, z+2/3'
   'x, y+1/3, z'
   '-x, -y+2/3, z'
   '-y+5/6, x+1/6, z+1/6'
   'y+1/2, -x+1/6, z+1/6'
   'x+1/6, -y+5/6, z+1/6'
   '-x+1/6, y+1/2, z+1/6'
   '-y+2/3, -x, z'
   'y+1/3, x, z'
   'x, y+1/3, z+1/3'
   '-x, -y+2/3, z+1/3'
   '-y+5/6, x+1/6, z+1/2'
   'y+1/2, -x+1/6, z+1/2'
   'x+1/6, -y+5/6, z+1/2'
   '-x+1/6, y+1/2, z+1/2'
   '-y+2/3, -x, z+1/3'
   'y+1/3, x, z+1/3'
   'x, y+1/3, z+2/3'
   '-x, -y+2/3, z+2/3'
   '-y+5/6, x+1/6, z+5/6'
   'y+1/2, -x+1/6, z+5/6'
   'x+1/6, -y+5/6, z+5/6'
   '-x+1/6, y+1/2, z+5/6'
   '-y+2/3, -x, z+2/3'
   'y+1/3, x, z+2/3'
   'x, y+2/3, z'
   '-x, -y+1/3, z'
   '-y+1/2, x+1/6, z+1/6'
   'y+5/6, -x+1/6, z+1/6'
   'x+1/6, -y+1/2, z+1/6'
   '-x+1/6, y+5/6, z+1/6'
   '-y+1/3, -x, z'
   'y+2/3, x, z'
   'x, y+2/3, z+1/3'
   '-x, -y+1/3, z+1/3'
   '-y+1/2, x+1/6, z+1/2'
   'y+5/6, -x+1/6, z+1/2'
   'x+1/6, -y+1/2, z+1/2'
   '-x+1/6, y+5/6, z+1/2'
   '-y+1/3, -x, z+1/3'
   'y+2/3, x, z+1/3'
   'x, y+2/3, z+2/3'
   '-x, -y+1/3, z+2/3'
   '-y+1/2, x+1/6, z+5/6'
   'y+5/6, -x+1/6, z+5/6'
   'x+1/6, -y+1/2, z+5/6'
   '-x+1/6, y+5/6, z+5/6'
   '-y+1/3, -x, z+2/3'
   'y+2/3, x, z+2/3'
   'x+1/3, y, z'
   '-x+2/3, -y, z'
   '-y+1/6, x+1/2, z+1/6'
   'y+1/6, -x+5/6, z+1/6'
   'x+1/2, -y+1/6, z+1/6'
   '-x+5/6, y+1/6, z+1/6'
   '-y, -x+2/3, z'
   'y, x+1/3, z'
   'x+1/3, y, z+1/3'
   '-x+2/3, -y, z+1/3'
   '-y+1/6, x+1/2, z+1/2'
   'y+1/6, -x+5/6, z+1/2'
   'x+1/2, -y+1/6, z+1/2'
   '-x+5/6, y+1/6, z+1/2'
   '-y, -x+2/3, z+1/3'
   'y, x+1/3, z+1/3'
   'x+1/3, y, z+2/3'
   '-x+2/3, -y, z+2/3'
   '-y+1/6, x+1/2, z+5/6'
   'y+1/6, -x+5/6, z+5/6'
   'x+1/2, -y+1/6, z+5/6'
   '-x+5/6, y+1/6, z+5/6'
   '-y, -x+2/3, z+2/3'
   'y, x+1/3, z+2/3'
   'x+1/3, y+1/3, z'
   '-x+2/3, -y+2/3, z'
   '-y+5/6, x+1/2, z+1/6'
   'y+1/2, -x+5/6, z+1/6'
   'x+1/2, -y+5/6, z+1/6'
   '-x+5/6, y+1/2, z+1/6'
   '-y+2/3, -x+2/3, z'
   'y+1/3, x+1/3, z'
   'x+1/3, y+1/3, z+1/3'
   '-x+2/3, -y+2/3, z+1/3'
   '-y+5/6, x+1/2, z+1/2'
   'y+1/2, -x+5/6, z+1/2'
   'x+1/2, -y+5/6, z+1/2'
   '-x+5/6, y+1/2, z+1/2'
   '-y+2/3, -x+2/3, z+1/3'
   'y+1/3, x+1/3, z+1/3'
   'x+1/3, y+1/3, z+2/3'
   '-x+2/3, -y+2/3, z+2/3'
   '-y+5/6, x+1/2, z+5/6'
   'y+1/2, -x+5/6, z+5/6'
   'x+1/2, -y+5/6, z+5/6'
   '-x+5/6, y+1/2, z+5/6'
   '-y+2/3, -x+2/3, z+2/3'
   'y+1/3, x+1/3, z+2/3'
   'x+1/3, y+2/3, z'
   '-x+2/3, -y+1/3, z'
   '-y+1/2, x+1/2, z+1/6'
   'y+5/6, -x+5/6, z+1/6'
   'x+1/2, -y+1/2, z+1/6'
   '-x+5/6, y+5/6, z+1/6'
   '-y+1/3, -x+2/3, z'
   'y+2/3, x+1/3, z'
   'x+1/3, y+2/3, z+1/3'
   '-x+2/3, -y+1/3, z+1/3'
   '-y+1/2, x+1/2, z+1/2'
   'y+5/6, -x+5/6, z+1/2'
   'x+1/2, -y+1/2, z+1/2'
   '-x+5/6, y+5/6, z+1/2'
   '-y+1/3, -x+2/3, z+1/3'
   'y+2/3, x+1/3, z+1/3'
   'x+1/3, y+2/3, z+2/3'
   '-x+2/3, -y+1/3, z+2/3'
   '-y+1/2, x+1/2, z+5/6'
   'y+5/6, -x+5/6, z+5/6'
   'x+1/2, -y+1/2, z+5/6'
   '-x+5/6, y+5/6, z+5/6'
   '-y+1/3, -x+2/3, z+2/3'
   'y+2/3, x+1/3, z+2/3'
   'x+2/3, y, z'
   '-x+1/3, -y, z'
   '-y+1/6, x+5/6, z+1/6'
   'y+1/6, -x+1/2, z+1/6'
   'x+5/6, -y+1/6, z+1/6'
   '-x+1/2, y+1/6, z+1/6'
   '-y, -x+1/3, z'
   'y, x+2/3, z'
   'x+2/3, y, z+1/3'
   '-x+1/3, -y, z+1/3'
   '-y+1/6, x+5/6, z+1/2'
   'y+1/6, -x+1/2, z+1/2'
   'x+5/6, -y+1/6, z+1/2'
   '-x+1/2, y+1/6, z+1/2'
   '-y, -x+1/3, z+1/3'
   'y, x+2/3, z+1/3'
   'x+2/3, y, z+2/3'
   '-x+1/3, -y, z+2/3'
   '-y+1/6, x+5/6, z+5/6'
   'y+1/6, -x+1/2, z+5/6'
   'x+5/6, -y+1/6, z+5/6'
   '-x+1/2, y+1/6, z+5/6'
   '-y, -x+1/3, z+2/3'
   'y, x+2/3, z+2/3'
   'x+2/3, y+1/3, z'
   '-x+1/3, -y+2/3, z'
   '-y+5/6, x+5/6, z+1/6'
   'y+1/2, -x+1/2, z+1/6'
   'x+5/6, -y+5/6, z+1/6'
   '-x+1/2, y+1/2, z+1/6'
   '-y+2/3, -x+1/3, z'
   'y+1/3, x+2/3, z'
   'x+2/3, y+1/3, z+1/3'
   '-x+1/3, -y+2/3, z+1/3'
   '-y+5/6, x+5/6, z+1/2'
   'y+1/2, -x+1/2, z+1/2'
   'x+5/6, -y+5/6, z+1/2'
   '-x+1/2, y+1/2, z+1/2'
   '-y+2/3, -x+1/3, z+1/3'
   'y+1/3, x+2/3, z+1/3'
   'x+2/3, y+1/3, z+2/3'
   '-x+1/3, -y+2/3, z+2/3'
   '-y+5/6, x+5/6, z+5/6'
   'y+1/2, -x+1/2, z+5/6'
   'x+5/6, -y+5/6, z+5/6'
   '-x+1/2, y+1/2, z+5/6'
   '-y+2/3, -x+1/3, z+2/3'
   'y+1/3, x+2/3, z+2/3'
   'x+2/3, y+2/3, z'
   '-x+1/3, -y+1/3, z'
   '-y+1/2, x+5/6, z+1/6'
   'y+5/6, -x+1/2, z+1/6'
   'x+5/6, -y+1/2, z+1/6'
   '-x+1/2, y+5/6, z+1/6'
   '-y+1/3, -x+1/3, z'
   'y+2/3, x+2/3, z'
   'x+2/3, y+2/3, z+1/3'
   '-x+1/3, -y+1/3, z+1/3'
   '-y+1/2, x+5/6, z+1/2'
   'y+5/6, -x+1/2, z+1/2'
   'x+5/6, -y+1/2, z+1/2'
   '-x+1/2, y+5/6, z+1/2'
   '-y+1/3, -x+1/3, z+1/3'
   'y+2/3, x+2/3, z+1/3'
   'x+2/3, y+2/3, z+2/3'
   '-x+1/3, -y+1/3, z+2/3'
   '-y+1/2, x+5/6, z+5/6'
   'y+5/6, -x+1/2, z+5/6'
   'x+5/6, -y+1/2, z+5/6'
   '-x+1/2, y+5/6, z+5/6'
   '-y+1/3, -x+1/3, z+2/3'
   'y+2/3, x+2/3, z+2/3'

loop_
   _atom_site_label
   _atom_site_occupancy
   _atom_site_fract_x
   _atom_site_fract_y
   _atom_site_fract_z
   _atom_site_adp_type
   _atom_site_U_iso_or_equiv
   _atom_site_type_symbol
   H0         1.0     0.055109     0.278224     0.275197    Uiso  ? H
   O1         1.0     0.000000     0.000000     0.002940    Uiso  ? O
