
#======================================================================
# CRYSTAL DATA
#----------------------------------------------------------------------
data_VESTA_phase_1

_chemical_name_common                  'CONTCAR-CsPbCl3-222'
_cell_length_a                         15.802800
_cell_length_b                         16.205000
_cell_length_c                         22.742500
_cell_angle_alpha                      90.000000
_cell_angle_beta                       90.000000
_cell_angle_gamma                      90.000000
_cell_volume                           5823.998992
_space_group_name_H-M_alt              'P 1'
_space_group_IT_number                 1

loop_
_space_group_symop_operation_xyz
   'x, y, z'

loop_
   _atom_site_label
   _atom_site_occupancy
   _atom_site_fract_x
   _atom_site_fract_y
   _atom_site_fract_z
   _atom_site_adp_type
   _atom_site_U_iso_or_equiv
   _atom_site_type_symbol
   Cs1        1.0     0.494830     0.477310     0.125000    Uiso  ? Cs
   Cs2        1.0     0.005170     0.022690     0.375000    Uiso  ? Cs
   Cs3        1.0     0.244830     0.272690     0.375000    Uiso  ? Cs
   Cs4        1.0     0.255170     0.227310     0.125000    Uiso  ? Cs
   Cs5        1.0     0.994830     0.477310     0.125000    Uiso  ? Cs
   Cs6        1.0     0.505170     0.022690     0.375000    Uiso  ? Cs
   Cs7        1.0     0.744830     0.272690     0.375000    Uiso  ? Cs
   Cs8        1.0     0.755170     0.227310     0.125000    Uiso  ? Cs
   Cs9        1.0     0.494830     0.977310     0.125000    Uiso  ? Cs
   Cs10       1.0     0.005170     0.522690     0.375000    Uiso  ? Cs
   Cs11       1.0     0.244830     0.772690     0.375000    Uiso  ? Cs
   Cs12       1.0     0.255170     0.727310     0.125000    Uiso  ? Cs
   Cs13       1.0     0.994830     0.977310     0.125000    Uiso  ? Cs
   Cs14       1.0     0.505170     0.522690     0.375000    Uiso  ? Cs
   Cs15       1.0     0.744830     0.772690     0.375000    Uiso  ? Cs
   Cs16       1.0     0.755170     0.727310     0.125000    Uiso  ? Cs
   Cs17       1.0     0.494830     0.477310     0.625000    Uiso  ? Cs
   Cs18       1.0     0.005170     0.022690     0.875000    Uiso  ? Cs
   Cs19       1.0     0.244830     0.272690     0.875000    Uiso  ? Cs
   Cs20       1.0     0.255170     0.227310     0.625000    Uiso  ? Cs
   Cs21       1.0     0.994830     0.477310     0.625000    Uiso  ? Cs
   Cs22       1.0     0.505170     0.022690     0.875000    Uiso  ? Cs
   Cs23       1.0     0.744830     0.272690     0.875000    Uiso  ? Cs
   Cs24       1.0     0.755170     0.227310     0.625000    Uiso  ? Cs
   Cs25       1.0     0.494830     0.977310     0.625000    Uiso  ? Cs
   Cs26       1.0     0.005170     0.522690     0.875000    Uiso  ? Cs
   Cs27       1.0     0.244830     0.772690     0.875000    Uiso  ? Cs
   Cs28       1.0     0.255170     0.727310     0.625000    Uiso  ? Cs
   Cs29       1.0     0.994830     0.977310     0.625000    Uiso  ? Cs
   Cs30       1.0     0.505170     0.522690     0.875000    Uiso  ? Cs
   Cs31       1.0     0.744830     0.772690     0.875000    Uiso  ? Cs
   Cs32       1.0     0.755170     0.727310     0.625000    Uiso  ? Cs
   Pb1        1.0     0.250000     0.000000     0.000000    Uiso  ? Pb
   Pb2        1.0     0.000000     0.250000     0.000000    Uiso  ? Pb
   Pb3        1.0     0.250000     0.000000     0.250000    Uiso  ? Pb
   Pb4        1.0     0.000000     0.250000     0.250000    Uiso  ? Pb
   Pb5        1.0     0.750000     0.000000     0.000000    Uiso  ? Pb
   Pb6        1.0     0.500000     0.250000     0.000000    Uiso  ? Pb
   Pb7        1.0     0.750000     0.000000     0.250000    Uiso  ? Pb
   Pb8        1.0     0.500000     0.250000     0.250000    Uiso  ? Pb
   Pb9        1.0     0.250000     0.500000     0.000000    Uiso  ? Pb
   Pb10       1.0     0.000000     0.750000     0.000000    Uiso  ? Pb
   Pb11       1.0     0.250000     0.500000     0.250000    Uiso  ? Pb
   Pb12       1.0     0.000000     0.750000     0.250000    Uiso  ? Pb
   Pb13       1.0     0.750000     0.500000     0.000000    Uiso  ? Pb
   Pb14       1.0     0.500000     0.750000     0.000000    Uiso  ? Pb
   Pb15       1.0     0.750000     0.500000     0.250000    Uiso  ? Pb
   Pb16       1.0     0.500000     0.750000     0.250000    Uiso  ? Pb
   Pb17       1.0     0.250000     0.000000     0.500000    Uiso  ? Pb
   Pb18       1.0     0.000000     0.250000     0.500000    Uiso  ? Pb
   Pb19       1.0     0.250000     0.000000     0.750000    Uiso  ? Pb
   Pb20       1.0     0.000000     0.250000     0.750000    Uiso  ? Pb
   Pb21       1.0     0.750000     0.000000     0.500000    Uiso  ? Pb
   Pb22       1.0     0.500000     0.250000     0.500000    Uiso  ? Pb
   Pb23       1.0     0.750000     0.000000     0.750000    Uiso  ? Pb
   Pb24       1.0     0.500000     0.250000     0.750000    Uiso  ? Pb
   Pb25       1.0     0.250000     0.500000     0.500000    Uiso  ? Pb
   Pb26       1.0     0.000000     0.750000     0.500000    Uiso  ? Pb
   Pb27       1.0     0.250000     0.500000     0.750000    Uiso  ? Pb
   Pb28       1.0     0.000000     0.750000     0.750000    Uiso  ? Pb
   Pb29       1.0     0.750000     0.500000     0.500000    Uiso  ? Pb
   Pb30       1.0     0.500000     0.750000     0.500000    Uiso  ? Pb
   Pb31       1.0     0.750000     0.500000     0.750000    Uiso  ? Pb
   Pb32       1.0     0.500000     0.750000     0.750000    Uiso  ? Pb
   Cl1        1.0     0.030550     0.257000     0.125000    Uiso  ? Cl
   Cl2        1.0     0.469450     0.243000     0.375000    Uiso  ? Cl
   Cl3        1.0     0.280550     0.493000     0.375000    Uiso  ? Cl
   Cl4        1.0     0.219450     0.007000     0.125000    Uiso  ? Cl
   Cl5        1.0     0.397680     0.103290     0.015900    Uiso  ? Cl
   Cl6        1.0     0.102320     0.396710     0.484100    Uiso  ? Cl
   Cl7        1.0     0.147680     0.146710     0.484100    Uiso  ? Cl
   Cl8        1.0     0.352320     0.353290     0.015900    Uiso  ? Cl
   Cl9        1.0     0.102320     0.396710     0.265900    Uiso  ? Cl
   Cl10       1.0     0.397680     0.103290     0.234100    Uiso  ? Cl
   Cl11       1.0     0.352320     0.353290     0.234100    Uiso  ? Cl
   Cl12       1.0     0.147680     0.146710     0.265900    Uiso  ? Cl
   Cl13       1.0     0.530550     0.257000     0.125000    Uiso  ? Cl
   Cl14       1.0     0.969450     0.243000     0.375000    Uiso  ? Cl
   Cl15       1.0     0.780550     0.493000     0.375000    Uiso  ? Cl
   Cl16       1.0     0.719450     0.007000     0.125000    Uiso  ? Cl
   Cl17       1.0     0.897680     0.103290     0.015900    Uiso  ? Cl
   Cl18       1.0     0.602320     0.396710     0.484100    Uiso  ? Cl
   Cl19       1.0     0.647680     0.146710     0.484100    Uiso  ? Cl
   Cl20       1.0     0.852320     0.353290     0.015900    Uiso  ? Cl
   Cl21       1.0     0.602320     0.396710     0.265900    Uiso  ? Cl
   Cl22       1.0     0.897680     0.103290     0.234100    Uiso  ? Cl
   Cl23       1.0     0.852320     0.353290     0.234100    Uiso  ? Cl
   Cl24       1.0     0.647680     0.146710     0.265900    Uiso  ? Cl
   Cl25       1.0     0.030550     0.757000     0.125000    Uiso  ? Cl
   Cl26       1.0     0.469450     0.743000     0.375000    Uiso  ? Cl
   Cl27       1.0     0.280550     0.993000     0.375000    Uiso  ? Cl
   Cl28       1.0     0.219450     0.507000     0.125000    Uiso  ? Cl
   Cl29       1.0     0.397680     0.603290     0.015900    Uiso  ? Cl
   Cl30       1.0     0.102320     0.896710     0.484100    Uiso  ? Cl
   Cl31       1.0     0.147680     0.646710     0.484100    Uiso  ? Cl
   Cl32       1.0     0.352320     0.853290     0.015900    Uiso  ? Cl
   Cl33       1.0     0.102320     0.896710     0.265900    Uiso  ? Cl
   Cl34       1.0     0.397680     0.603290     0.234100    Uiso  ? Cl
   Cl35       1.0     0.352320     0.853290     0.234100    Uiso  ? Cl
   Cl36       1.0     0.147680     0.646710     0.265900    Uiso  ? Cl
   Cl37       1.0     0.530550     0.757000     0.125000    Uiso  ? Cl
   Cl38       1.0     0.969450     0.743000     0.375000    Uiso  ? Cl
   Cl39       1.0     0.780550     0.993000     0.375000    Uiso  ? Cl
   Cl40       1.0     0.719450     0.507000     0.125000    Uiso  ? Cl
   Cl41       1.0     0.897680     0.603290     0.015900    Uiso  ? Cl
   Cl42       1.0     0.602320     0.896710     0.484100    Uiso  ? Cl
   Cl43       1.0     0.647680     0.646710     0.484100    Uiso  ? Cl
   Cl44       1.0     0.852320     0.853290     0.015900    Uiso  ? Cl
   Cl45       1.0     0.602320     0.896710     0.265900    Uiso  ? Cl
   Cl46       1.0     0.897680     0.603290     0.234100    Uiso  ? Cl
   Cl47       1.0     0.852320     0.853290     0.234100    Uiso  ? Cl
   Cl48       1.0     0.647680     0.646710     0.265900    Uiso  ? Cl
   Cl49       1.0     0.030550     0.257000     0.625000    Uiso  ? Cl
   Cl50       1.0     0.469450     0.243000     0.875000    Uiso  ? Cl
   Cl51       1.0     0.280550     0.493000     0.875000    Uiso  ? Cl
   Cl52       1.0     0.219450     0.007000     0.625000    Uiso  ? Cl
   Cl53       1.0     0.397680     0.103290     0.515900    Uiso  ? Cl
   Cl54       1.0     0.102320     0.396710     0.984100    Uiso  ? Cl
   Cl55       1.0     0.147680     0.146710     0.984100    Uiso  ? Cl
   Cl56       1.0     0.352320     0.353290     0.515900    Uiso  ? Cl
   Cl57       1.0     0.102320     0.396710     0.765900    Uiso  ? Cl
   Cl58       1.0     0.397680     0.103290     0.734100    Uiso  ? Cl
   Cl59       1.0     0.352320     0.353290     0.734100    Uiso  ? Cl
   Cl60       1.0     0.147680     0.146710     0.765900    Uiso  ? Cl
   Cl61       1.0     0.530550     0.257000     0.625000    Uiso  ? Cl
   Cl62       1.0     0.969450     0.243000     0.875000    Uiso  ? Cl
   Cl63       1.0     0.780550     0.493000     0.875000    Uiso  ? Cl
   Cl64       1.0     0.719450     0.007000     0.625000    Uiso  ? Cl
   Cl65       1.0     0.897680     0.103290     0.515900    Uiso  ? Cl
   Cl66       1.0     0.602320     0.396710     0.984100    Uiso  ? Cl
   Cl67       1.0     0.647680     0.146710     0.984100    Uiso  ? Cl
   Cl68       1.0     0.852320     0.353290     0.515900    Uiso  ? Cl
   Cl69       1.0     0.602320     0.396710     0.765900    Uiso  ? Cl
   Cl70       1.0     0.897680     0.103290     0.734100    Uiso  ? Cl
   Cl71       1.0     0.852320     0.353290     0.734100    Uiso  ? Cl
   Cl72       1.0     0.647680     0.146710     0.765900    Uiso  ? Cl
   Cl73       1.0     0.030550     0.757000     0.625000    Uiso  ? Cl
   Cl74       1.0     0.469450     0.743000     0.875000    Uiso  ? Cl
   Cl75       1.0     0.280550     0.993000     0.875000    Uiso  ? Cl
   Cl76       1.0     0.219450     0.507000     0.625000    Uiso  ? Cl
   Cl77       1.0     0.397680     0.603290     0.515900    Uiso  ? Cl
   Cl78       1.0     0.102320     0.896710     0.984100    Uiso  ? Cl
   Cl79       1.0     0.147680     0.646710     0.984100    Uiso  ? Cl
   Cl80       1.0     0.352320     0.853290     0.515900    Uiso  ? Cl
   Cl81       1.0     0.102320     0.896710     0.765900    Uiso  ? Cl
   Cl82       1.0     0.397680     0.603290     0.734100    Uiso  ? Cl
   Cl83       1.0     0.352320     0.853290     0.734100    Uiso  ? Cl
   Cl84       1.0     0.147680     0.646710     0.765900    Uiso  ? Cl
   Cl85       1.0     0.530550     0.757000     0.625000    Uiso  ? Cl
   Cl86       1.0     0.969450     0.743000     0.875000    Uiso  ? Cl
   Cl87       1.0     0.780550     0.993000     0.875000    Uiso  ? Cl
   Cl88       1.0     0.719450     0.507000     0.625000    Uiso  ? Cl
   Cl89       1.0     0.897680     0.603290     0.515900    Uiso  ? Cl
   Cl90       1.0     0.602320     0.896710     0.984100    Uiso  ? Cl
   Cl91       1.0     0.647680     0.646710     0.984100    Uiso  ? Cl
   Cl92       1.0     0.852320     0.853290     0.515900    Uiso  ? Cl
   Cl93       1.0     0.602320     0.896710     0.765900    Uiso  ? Cl
   Cl94       1.0     0.897680     0.603290     0.734100    Uiso  ? Cl
   Cl95       1.0     0.852320     0.853290     0.734100    Uiso  ? Cl
   Cl96       1.0     0.647680     0.646710     0.765900    Uiso  ? Cl
